ucte/ucte-converter/src/test/resources/network2.xml
<?xml version="1.0" encoding="UTF-8"?>
<iidm:network xmlns:iidm="http://www.powsybl.org/schema/iidm/1_13" id="sim1" caseDate="2021-08-27T14:44:56.567+02:00" forecastDistance="0" sourceFormat="test" minimumValidationLevel="STEADY_STATE_HYPOTHESIS">
    <iidm:voltageLevel id="NHV1_NHV2_1_VL#0" nominalV="380.0" topologyKind="BUS_BREAKER">
        <iidm:busBreakerTopology>
            <iidm:bus id="bus"/>
            <iidm:bus id="NHV1_NHV2_1_1_BUS"/>
            <iidm:bus id="NHV1_NHV2_1_2_BUS"/>
            <iidm:switch id="NHV1_NHV2_1_1_SW_1" kind="BREAKER" retained="true" open="false" bus1="NHV1_NHV2_1_1_BUS" bus2="bus"/>
            <iidm:switch id="NHV1_NHV2_1_2_SW_2" kind="BREAKER" retained="true" open="false" bus1="bus" bus2="NHV1_NHV2_1_2_BUS"/>
        </iidm:busBreakerTopology>
    </iidm:voltageLevel>
    <iidm:substation id="P1" country="FR" tso="RTE" geographicalTags="A">
        <iidm:voltageLevel id="VLGEN" nominalV="27.0" topologyKind="BUS_BREAKER">
            <iidm:busBreakerTopology>
                <iidm:bus id="NGEN"/>
            </iidm:busBreakerTopology>
            <iidm:generator id="GEN" energySource="OTHER" minP="-9999.99" maxP="9999.99" voltageRegulatorOn="true" targetP="607.0" targetV="24.5" targetQ="301.0" bus="NGEN" connectableBus="NGEN">
                <iidm:minMaxReactiveLimits minQ="-9999.99" maxQ="9999.99"/>
            </iidm:generator>
        </iidm:voltageLevel>
        <iidm:voltageLevel id="VLHV1" nominalV="380.0" topologyKind="BUS_BREAKER">
            <iidm:busBreakerTopology>
                <iidm:bus id="NHV1"/>
            </iidm:busBreakerTopology>
        </iidm:voltageLevel>
        <iidm:twoWindingsTransformer id="NGEN_NHV1" r="0.26658461538461536" x="11.104492831516762" g="0.0" b="0.0" ratedU1="24.0" ratedU2="400.0" bus1="NGEN" connectableBus1="NGEN" voltageLevelId1="VLGEN" bus2="NHV1" connectableBus2="NHV1" voltageLevelId2="VLHV1"/>
    </iidm:substation>
    <iidm:substation id="P2" country="FR" tso="RTE" geographicalTags="B">
        <iidm:voltageLevel id="VLHV2" nominalV="380.0" topologyKind="BUS_BREAKER">
            <iidm:busBreakerTopology>
                <iidm:bus id="NHV2"/>
            </iidm:busBreakerTopology>
        </iidm:voltageLevel>
        <iidm:voltageLevel id="VLLOAD" nominalV="150.0" topologyKind="BUS_BREAKER">
            <iidm:busBreakerTopology>
                <iidm:bus id="NLOAD"/>
            </iidm:busBreakerTopology>
            <iidm:load id="LOAD" loadType="UNDEFINED" p0="600.0" q0="200.0" bus="NLOAD" connectableBus="NLOAD"/>
        </iidm:voltageLevel>
        <iidm:twoWindingsTransformer id="NHV2_NLOAD" r="0.04724999999999999" x="4.049724365620455" g="0.0" b="0.0" ratedU1="400.0" ratedU2="158.0" bus1="NHV2" connectableBus1="NHV2" voltageLevelId1="VLHV2" bus2="NLOAD" connectableBus2="NLOAD" voltageLevelId2="VLLOAD">
            <iidm:ratioTapChanger lowTapPosition="0" tapPosition="1" targetDeadband="0.0" loadTapChangingCapabilities="true" regulating="true" regulationMode="VOLTAGE" regulationValue="158.0">
                <iidm:terminalRef id="NHV2_NLOAD" side="TWO"/>
                <iidm:step r="0.0" x="0.0" g="0.0" b="0.0" rho="0.8505666905244191"/>
                <iidm:step r="0.0" x="0.0" g="0.0" b="0.0" rho="1.0006666666666666"/>
                <iidm:step r="0.0" x="0.0" g="0.0" b="0.0" rho="1.150766642808914"/>
            </iidm:ratioTapChanger>
        </iidm:twoWindingsTransformer>
    </iidm:substation>
    <iidm:line id="NHV1_NHV2_2" r="3.0" x="33.0" g1="0.0" b1="1.93E-4" g2="0.0" b2="1.93E-4" bus1="NHV1" connectableBus1="NHV1" voltageLevelId1="VLHV1" bus2="NHV2" connectableBus2="NHV2" voltageLevelId2="VLHV2"/>
    <iidm:line id="NHV1_NHV2_1_1" r="1.5" x="16.5" g1="0.0" b1="9.65E-5" g2="0.0" b2="9.65E-5" bus1="NHV1" connectableBus1="NHV1" voltageLevelId1="VLHV1" bus2="NHV1_NHV2_1_1_BUS" connectableBus2="NHV1_NHV2_1_1_BUS" voltageLevelId2="NHV1_NHV2_1_VL#0"/>
    <iidm:line id="NHV1_NHV2_1_2" r="1.5" x="16.5" g1="0.0" b1="9.65E-5" g2="0.0" b2="9.65E-5" bus1="NHV1_NHV2_1_2_BUS" connectableBus1="NHV1_NHV2_1_2_BUS" voltageLevelId1="NHV1_NHV2_1_VL#0" bus2="NHV2" connectableBus2="NHV2" voltageLevelId2="VLHV2"/>
</iidm:network>
